@<TRIPOS>MOLECULE
molClass_pyrnitmolecule_1
   10     9     0     0     0
SMALL
NO_CHARGES

@<TRIPOS>ATOM
      1 C1          1.0277    0.1348    0.3510 C.3       1 <0>         0.0000
      2 C2          2.3857    0.4585    2.3034 C.3       1 <0>         0.0000
      3 N1          1.0302    0.2824    1.8002 N.3       1 <0>         0.0000
      4 H1          1.6257   -0.7330    0.0608 H         1 <0>         0.0000
      5 H2          1.4498    1.0265   -0.1204 H         1 <0>         0.0000
      6 H3          0.0062   -0.0039   -0.0131 H         1 <0>         0.0000
      7 H4          3.0004   -0.4053    2.0373 H         1 <0>         0.0000
      8 H5          2.3744    0.5605    3.3920 H         1 <0>         0.0000
      9 H6          2.8354    1.3568    1.8719 H         1 <0>         0.0000
     10 H7          0.4693    1.0948    2.0556 H         1 <0>         0.0000
@<TRIPOS>BOND
     1    1    3 1
     2    2    3 1
     3    1    4 1
     4    1    5 1
     5    1    6 1
     6    2    7 1
     7    2    8 1
     8    2    9 1
     9    3   10 1
