@<TRIPOS>MOLECULE
ethanol
    9     8     0     0     0
SMALL
USER_CHARGES

@<TRIPOS>ATOM
      1 C1          1.0616   -0.2681   -0.0006 C.3       1 ETH1       -0.0971
      2 C2          1.9101    0.9126   -0.4220 C.3       1 ETH1        0.1314
      3 O1          1.5170    1.3236   -1.7228 O.3       1 ETH1       -0.6013
      4 H1          2.0787    2.0794   -1.9612 H         1 ETH1        0.3981
      5 H2          1.3393   -0.6108    1.0001 H         1 ETH1        0.0448
      6 H3         -0.0000   -0.0002   -0.0006 H         1 ETH1        0.0448
      7 H4          2.9684    0.6361   -0.4446 H         1 ETH1        0.0173
      8 H5          1.1801   -1.0990   -0.7040 H         1 ETH1        0.0448
      9 H6          1.7730    1.7499    0.2687 H         1 ETH1        0.0173
@<TRIPOS>BOND
     1    1    2 1
     2    2    3 1
     3    1    5 1
     4    1    6 1
     5    1    8 1
     6    2    7 1
     7    2    9 1
     8    3    4 1
